LAMMPS (29 Sep 2021 - Update 2)
#initialization
units metal
boundary p p p
atom_style full
pair_style vashishta
neighbor 1.0 bin
neigh_modify delay 1

#sytem definition
read_data dataSiO.data
Reading data file ...
  orthogonal box = (0.0000000 0.0000000 0.0000000) to (5.1463944 5.1463944 5.1463944)
  reading atoms ...
  9 atoms
Finding 1-2 1-3 1-4 neighbors ...
     0 = max # of 1-2 neighbors
     0 = max # of 1-3 neighbors
     0 = max # of 1-4 neighbors
     1 = max # of special neighbors
replicate 4 4 4
Replicating atoms ...
  orthogonal box = (0.0000000 0.0000000 0.0000000) to (20.585578 20.585578 20.585578)
  576 atoms
Finding 1-2 1-3 1-4 neighbors ...
     0 = max # of 1-2 neighbors
     0 = max # of 1-3 neighbors
     0 = max # of 1-4 neighbors
     1 = max # of special neighbors
  replicate CPU = 0.002 seconds

#Simulation setting
pair_coeff * * SiO.1990.vashishta Si O
Reading vashishta potential file SiO.1990.vashishta with DATE: 2015-10-14
dump dmp all atom 5000 dump.lammpstrj

#annealing/ 6000K으로 시작해서 100atm에서 4000K으로 냉각
#그다음에 압력 낮추면서 1atm 300K상태로 보내는 코드
#run
velocity all create 6000 492856 rot yes dist gaussian
fix nvt1 all nvt temp 6000 6000 0.1
timestep 0.001
thermo 1000
run 5000
  update every 1 steps, delay 1 steps, check yes
Step Temp E_pair E_mol TotEng Press
0         6000   -2060.8001            0   -1614.8526    779045.54
Loop time of 98.7463 on 1 procs for 5000 steps with 576 atoms

unfix nvt1
fix  npt1 all npt temp 6000 4000 0.1 aniso 100 1 1
run 5000
Step Temp E_pair E_mol TotEng Press Volume
5000    6005.2753   -4456.5906            0    -4010.251    42484.334    8723.4681
Loop time of 83.964 on 1 procs for 5000 steps with 576 atoms

fix npt1 all npt temp 4000 300 0.1 aniso 100 1 1
run 200000
Step Temp E_pair E_mol TotEng Press Volume
10000    3944.6734   -4645.9837            0   -4352.7975    12615.135    9260.6852
Averages over the last 101 of 201 rows, steps 110000 to 210000:
Temp E_pair E_mol TotEng Press Volume
1228.53 -5100.85 0 -5009.54 121.324 7624.76
Loop time of 4147.73 on 1 procs for 200000 steps with 576 atoms

fix npt1 all npt temp 300 300 0.1 aniso 1 1 1
run 4000
Step Temp E_pair E_mol TotEng Press Volume
210000    305.83663   -5175.8892            0    -5153.158    3177.8214    7463.2992
Loop time of 84.9616 on 1 procs for 4000 steps with 576 atoms

write_data data.amorphousSiO
System init for write_data ...
