LAMMPS (5 May 2020)
# MatSQ - MD : Tensile test calculation to get Stress-Strain curve
# # Written by M. Park (Virtual Lab)
# # 2020. 05. 29.

# Define system
units 		metal
dimension	3
boundary	p p p
atom_style	atomic

# Read data and define FF
variable        dt    equal 0.0005
variable        Tdamp equal v_dt*100
variable        Pdamp equal v_dt*1000
variable        Temp  equal 300

read_data      structure.matsq.lammps
  triclinic box = (0 0 0) to (102 40.4 40.4) with tilt (0 0 0)
  reading atoms ...
  2500 atoms

pair_style	eam/alloy
pair_coeff	* * ffields/EAM-ALLOY/Au_Mpt.eam.alloy Au

# Equilibration
reset_timestep	0
timestep        0.0005
velocity        all create 300 12345 mom yes rot no
fix             1 all npt temp 300 300 0.05 iso 0 0 0.5 drag 1
thermo          1000
thermo_style    custom step lx ly lz press pxx pyy pzz pe temp
run             20000 # Run for at least 10 picosecond (assuming 1 fs timestep)
  update every 1 steps, delay 10 steps, check yes
Step Lx Ly Lz Press Pxx Pyy Pzz PotEng Temp
0          102         40.4         40.4   -14828.439    -17880.46   -13307.648   -13297.207   -9229.3033          300
Averages over the last 11 of 21 rows, steps 10000 to 20000:
Lx Ly Lz Press Pxx Pyy Pzz PotEng Temp
99.8488 39.548 39.548 4.07081 182.88 -76.6183 -94.0488 -9203.06 298.607
Loop time of 6.72125 on 16 procs for 20000 steps with 2500 atoms

unfix           1

# Deformation simualtion begin
reset_timestep	0
#variable        srate  equal 1.0e10             # strain rate : 1.e10 s-1
#variable        srate1 equal "v_srate / 1.0e12" # convert, ps -> s

## X-direction
variable        tmp equal "lx"   # x-direction
variable        L0 equal 100.987554649281
fix		1 all npt temp 300 300 0.05 y 0 0 0.5 z 0 0 0.5 drag 1
fix		fdeform all deform 1 x erate 0.001 units box remap x  # erate [s-1]
#fix             fdeform all deform 1 x vel 0.001 units box remap x         # velocity [A/ps]
variable        strain equal "(lx - v_L0)/v_L0"

## Y-direction
#variable        tmp equal "ly"   # y-direction
#fix		fdeform all deform 1 y erate 0.001 units box remap x  # erate [s-1]
##fix            fdeform all deform 1 y vel 0.001 units box remap x        # velocity [A/ps]
#variable        strain equal "(ly - v_L0)/v_L0"

## Z-direction
#variable        tmp equal "lz"   # z-direction
#fix		fdeform all deform 1 z erate 0.001 units box remap x  # erate [s-1]
##fix            fdeform all deform 1 z vel 0.001 units box remap x        # velocity [A/ps]
#variable        strain equal "(lz - v_L0)/v_L0"

# p2, p3, p4 [GPa]
variable        p1 equal "v_strain"
variable        p2 equal "-pxx/10000"
variable        p3 equal "-pyy/10000"
variable        p4 equal "-pzz/10000"

# Dump trajectories
#dump            dmp_ss all custom 1000 *.dat id type xu yu zu vx vy vz element
dump            dmp_ss all custom 1000 *.dat id type xs ys zs vx vy vz element
dump_modify     dmp_ss element Au
thermo 	        1000
thermo_style	custom step v_strain temp v_p2 v_p3 v_p4 ke pe press

run		1000000
Step v_strain Temp v_p2 v_p3 v_p4 KinEng PotEng Press
0 -3.3772529e-15    296.34196   0.19224404 -0.093011713  -0.11501386    95.724706   -9200.4313     52.60509
Averages over the last 501 of 1001 rows, steps 500000 to 1000000:
v_strain Temp v_p2 v_p3 v_p4 KinEng PotEng Press
0.375 300.003 -0.000142516 -7.31478e-05 8.94368e-05 96.9072 -9138.88 0.420757
Loop time of 617.654 on 16 procs for 1000000 steps with 2500 atoms
