LAMMPS (5 May 2020)
# MatSQ - MD : Melt and quench
# Minimization --> Quenching Processs --> NEMD for thermal conductivity
#            rlx -->> nve1 -->> npt1(300-300)
#                     nve2 -->> npt2(300-2000)
#                     nve3
# Written by MK (Virtual Lab)
# 2020. 03. 23.
# Variables for Melt and quench
# Update log
# Add RDF and dump style has changed
# 2020. 06. 08.
# Modify dump style - schan
# 2020. 06. 08.
variable               N           equal     count(all)
variable               P           equal     1.01325
variable               T1          equal     1000     # quenching init temperature
variable               T2          equal     10    # quenching end temperature
variable               Qrate       equal     1      # K/ps
variable               Tdamp       equal     v_dt*100  # recommended value in official site
variable               Pdamp       equal     v_dt*1000 # recommended value in official site
variable               dt          equal     0.0005    # ps [1.e-12s] default 0.0005
variable               run_nve1    equal     50000
variable               run_npt1    equal     50000
variable               run_nve2    equal     50000
variable               run_npt2    equal     abs(floor((v_T2-v_T1)/v_Qrate/v_dt))
variable               run_nve3    equal     50000
variable               run_npt3    equal     abs(floor((v_T2-v_T1)/v_Qrate/v_dt))
variable               run_nve4    equal     50000
variable               rndn        equal     135753
variable               nbin        equal     200
# System
units                  metal
atom_style             atomic
dimension              3
boundary               p p p
# Read data from structure file / restart
read_data             structure.matsq.lammps
  triclinic box = (0 0 0) to (25.6 25.6 31.2) with tilt (0 0 0)
  reading atoms ...
  13 atoms
#mass                  1 12.0107
# Define potential (FF)
pair_style      eam/alloy
pair_coeff      * * ffields/EAM-ALLOY/Au_Mpt.eam.alloy Au
# Relaxation
neighbor               2.0 bin
neigh_modify           every 10  delay 0 check yes
fix                    br all box/relax iso 0.0 vmax 0.001
min_style              cg
minimize               1.00e-30 1.00e-30 100000 1000000
  update every 1 steps, delay 0 steps, check yes
Step Temp E_pair E_mol TotEng Press Volume
0            0   -24.381766            0   -24.381766   -1624.5692    20447.232
Loop time of 0.0235698 on 4 procs for 647 steps with 13 atoms

Minimization stats:
  Stopping criterion = energy tolerance
  Energy initial, next-to-last, final =
  Force two-norm initial, final = 62.5627 7.1785e-07
  Force max component initial, final = 62.199 2.98724e-07
  Final line search alpha, max atom move = 1 2.98724e-07
  Iterations, force evaluations = 647 846

unfix                  br
reset_timestep         0
# NVE 1
timestep               0.0005
thermo_style           custom step temp etotal pe ke enthalpy press lx ly lz vol density
thermo                 1000
fix                    nve1 all nve
variable               Temp   equal  temp
variable               ETOT   equal  etotal/v_N
variable               KE     equal  ke/v_N
variable               PE     equal  pe/v_N
variable               Pr     equal  press
#fix                    ave_nve1 all ave/time 100 10 1000 v_Temp v_ETOT v_PE v_KE v_Pr ave window 2 file temp_nve1.out
#write_data             data.polymer
run                    50000
Step Temp TotEng PotEng KinEng Enthalpy Press Lx Ly Lz Volume Density
0            0   -36.887111   -36.887111            0   -36.887111 -9.3205539e-06    19.189234    19.189234    23.386879    8611.6735   0.49374753
Averages over the last 26 of 51 rows, steps 25000 to 50000:
Temp TotEng PotEng KinEng Enthalpy Press Lx Ly Lz Volume Density
2.38185e-11 -36.8871 -36.8871 3.69454e-14 -36.8871 3.88124e-06 19.1892 19.1892 23.3869 8611.67 0.493748
Loop time of 1.04453 on 4 procs for 50000 steps with 13 atoms

unfix                  nve1
write_restart          restart.nve1
reset_timestep         0
# NPT 1
compute                myRDF all rdf 200
timestep               0.0005
thermo_style           custom step temp etotal pe ke enthalpy press vol lx ly lz density
velocity               all create 1000 135753 dist gaussian
thermo                 1000
fix                    rdf    all ave/time 100 1 1000 c_myRDF[1] c_myRDF[2] file vlab/rdf.dat mode vector
fix                    npt1 all nvt temp 1000 1000 0.05
variable               Temp   equal  temp
variable               ETOT   equal  etotal/v_N
variable               KE     equal  ke/v_N
variable               PE     equal  pe/v_N
variable               Pr     equal  press
dump                   dmp_npt all custom 1000 vlab/movie.dat id element xs ys zs
dump_modify            dmp_npt element Au
fix                    ave_npt1 all ave/time 100 10 1000 v_Temp v_ETOT v_PE v_KE v_Pr ave window 2 file temp.out
run                    50000
  update every 10 steps, delay 0 steps, check yes
Step Temp TotEng PotEng KinEng Enthalpy Press Volume Lx Ly Lz Density
0         1000   -35.335989   -36.887111    1.5511217   -34.301908    192.38782    8611.6735    19.189234    19.189234    23.386879   0.49374753
Averages over the last 26 of 51 rows, steps 25000 to 50000:
Temp TotEng PotEng KinEng Enthalpy Press Volume Lx Ly Lz Density
1086.47 -34.3623 -36.0476 1.68525 -34.4462 -15.5989 8611.67 19.1892 19.1892 23.3869 0.493748
Loop time of 0.992259 on 4 procs for 50000 steps with 13 atoms

unfix                  npt1
write_restart          restart.npt1
# NVE 2
timestep               0.0005
thermo_style           custom step temp etotal pe ke enthalpy press lx ly lz vol  density
thermo                 1000
fix                    nve2 all nve
variable               Temp   equal  temp
variable               ETOT   equal  etotal/v_N
variable               KE     equal  ke/v_N
variable               PE     equal  pe/v_N
variable               Pr     equal  press
run                    50000
Step Temp TotEng PotEng KinEng Enthalpy Press Lx Ly Lz Volume Density
50000    1168.7231   -33.960043   -35.772875    1.8128319   -30.976077    555.15815    19.189234    19.189234    23.386879    8611.6735   0.49374753
Averages over the last 26 of 51 rows, steps 75000 to 100000:
Temp TotEng PotEng KinEng Enthalpy Press Lx Ly Lz Volume Density
1195.3 -33.9601 -35.8141 1.85405 -34.7371 -144.561 19.1892 19.1892 23.3869 8611.67 0.493748
Loop time of 0.749943 on 4 procs for 50000 steps with 13 atoms

unfix                  nve2
write_restart          restart.nve2
# NPT 2
timestep               0.0005
thermo_style           custom step temp etotal pe ke enthalpy press vol lx ly lz density
thermo                 1000
fix                    npt2 all nvt temp 1000 10 0.05
variable               Temp   equal  temp
variable               ETOT   equal  etotal/v_N
variable               KE     equal  ke/v_N
variable               PE     equal  pe/v_N
variable               Pr     equal  press
run                    1980000
Step Temp TotEng PotEng KinEng Enthalpy Press Volume Lx Ly Lz Density
100000    847.64546   -33.960038    -35.27484    1.3148013   -38.798866   -900.24975    8611.6735    19.189234    19.189234    23.386879   0.49374753
Averages over the last 991 of 1981 rows, steps 1090000 to 2080000:
Temp TotEng PotEng KinEng Enthalpy Press Volume Lx Ly Lz Density
257.778 -37.908 -38.3078 0.399845 -37.9308 -4.24083 8611.67 19.1892 19.1892 23.3869 0.493748
Loop time of 38.428 on 4 procs for 1980000 steps with 13 atoms

unfix                  npt2
write_restart          restart.npt2
# NVE 3
timestep               0.0005
thermo_style           custom step temp etotal pe ke enthalpy press lx ly lz vol density
thermo                 1000
fix                    nve3 all nve
variable               Temp   equal  temp
variable               ETOT   equal  etotal/v_N
variable               KE     equal  ke/v_N
variable               PE     equal  pe/v_N
variable               Pr     equal  press
run                    50000
Step Temp TotEng PotEng KinEng Enthalpy Press Lx Ly Lz Volume Density
2080000    9.2993359   -38.652153   -38.666578  0.014424402   -38.741885   -16.694264    19.189234    19.189234    23.386879    8611.6735   0.49374753
Averages over the last 26 of 51 rows, steps 2105000 to 2130000:
Temp TotEng PotEng KinEng Enthalpy Press Lx Ly Lz Volume Density
7.38711 -38.6522 -38.6636 0.0114583 -38.6416 1.95476 19.1892 19.1892 23.3869 8611.67 0.493748
Loop time of 0.842912 on 4 procs for 50000 steps with 13 atoms

unfix                  nve3
write_restart          restart.nve3
